<routes>
   <vType id="SUMO_DEFAULT_TYPE" accel="0.8" decel="4.5" sigma="0.5" length="5" maxspeed="70" guishape="bus"/>
   
   <route id="from0" multi_ref="x" edges="0 1 2 3"/>
   <!--   <flow id="from0" type="SUMO_DEFAULT_TYPE" route="from0" begin="1" end="5002" period="1"/> -->
   <vehicle id= "0" type="SUMO_DEFAULT_TYPE" route="from0" depart="0" color="1,0,0"/>
   
   <route id="from1" multi_ref="x" edges="1 2 3 0"/>
   <!--   <flow id="from1" type="SUMO_DEFAULT_TYPE" route="from1" begin="2" end="5003" period="1"/> -->
   <vehicle id= "1" type="SUMO_DEFAULT_TYPE" route="from1" depart="1" color="0,1,0"/>

   <route id="from2" multi_ref="x" edges="2 3 0 1"/>
   <!--   <flow id="from2" type="SUMO_DEFAULT_TYPE" route="from2" begin="3" end="5004" period="1"/> -->
   <vehicle id= "2" type="SUMO_DEFAULT_TYPE" route="from2" depart="2" color="0,0,1"/>
   

   <route id="from3" multi_ref="x" edges="3 0 1 2"/>
   <!--   <flow id="from3" type="SUMO_DEFAULT_TYPE" route="from3" begin="4" end="5005" period="1"/>-->
   <vehicle id= "3" type="SUMO_DEFAULT_TYPE" route="from3" depart="3" color="1,1,1"/>
   
</routes>
