<?xml version="1.0" encoding="UTF-8"?>

<configuration xmlns:xsi="http://www.w3.org/2001/XMLSchema-instance" xsi:noNamespaceSchemaLocation="http://sumo.dlr.de/xsd/sumoConfiguration.xsd">

    <input>
        <net-file value="traffic_control.net.xml"/>
        <route-files value="traffic_control.rou.xml"/>
        <additional-files value="traffic_control.det.xml"/>
    </input>

    <time>
        <begin value="0"/>
    </time>

</configuration>
